<?xml version="1.0" encoding="UTF-8" standalone="yes"?>
<template encoding-version="1.3">
    <description>Sample flow crawling public pastes from Pastebin, catching content that matches example regular expressons and notifying on Slack. Author: Jan C. (jan@datahunters.ai, Github: jc-a3s, Twitter: jca3s)</description>
    <groupId>b2de74be-017b-1000-7141-d9ab37b4868d</groupId>
    <name>Pastebin Monitoring Flow</name>
    <snippet>
        <connections>
            <id>456f4a81-5955-3294-0000-000000000000</id>
            <parentGroupId>7f7bb8ba-9815-3b1e-0000-000000000000</parentGroupId>
            <backPressureDataSizeThreshold>1 GB</backPressureDataSizeThreshold>
            <backPressureObjectThreshold>10000</backPressureObjectThreshold>
            <destination>
                <groupId>7f7bb8ba-9815-3b1e-0000-000000000000</groupId>
                <id>13123a9a-6a94-390a-0000-000000000000</id>
                <type>PROCESSOR</type>
            </destination>
            <flowFileExpiration>0 sec</flowFileExpiration>
            <labelIndex>1</labelIndex>
            <loadBalanceCompression>DO_NOT_COMPRESS</loadBalanceCompression>
            <loadBalancePartitionAttribute></loadBalancePartitionAttribute>
            <loadBalanceStatus>LOAD_BALANCE_NOT_CONFIGURED</loadBalanceStatus>
            <loadBalanceStrategy>DO_NOT_LOAD_BALANCE</loadBalanceStrategy>
            <name></name>
            <selectedRelationships>Response</selectedRelationships>
            <source>
                <groupId>7f7bb8ba-9815-3b1e-0000-000000000000</groupId>
                <id>f9d6aed6-5c25-38b7-0000-000000000000</id>
                <type>PROCESSOR</type>
            </source>
            <zIndex>0</zIndex>
        </connections>
        <connections>
            <id>4e6a8b3e-316e-3e7f-0000-000000000000</id>
            <parentGroupId>7f7bb8ba-9815-3b1e-0000-000000000000</parentGroupId>
            <backPressureDataSizeThreshold>1 GB</backPressureDataSizeThreshold>
            <backPressureObjectThreshold>10000</backPressureObjectThreshold>
            <destination>
                <groupId>7f7bb8ba-9815-3b1e-0000-000000000000</groupId>
                <id>7c8cf305-cf16-35de-0000-000000000000</id>
                <type>PROCESSOR</type>
            </destination>
            <flowFileExpiration>0 sec</flowFileExpiration>
            <labelIndex>1</labelIndex>
            <loadBalanceCompression>DO_NOT_COMPRESS</loadBalanceCompression>
            <loadBalancePartitionAttribute></loadBalancePartitionAttribute>
            <loadBalanceStatus>LOAD_BALANCE_NOT_CONFIGURED</loadBalanceStatus>
            <loadBalanceStrategy>DO_NOT_LOAD_BALANCE</loadBalanceStrategy>
            <name></name>
            <selectedRelationships>Response</selectedRelationships>
            <source>
                <groupId>7f7bb8ba-9815-3b1e-0000-000000000000</groupId>
                <id>0b5ee1c2-98f1-30b6-0000-000000000000</id>
                <type>PROCESSOR</type>
            </source>
            <zIndex>0</zIndex>
        </connections>
        <connections>
            <id>4f9067f7-521b-37d2-0000-000000000000</id>
            <parentGroupId>7f7bb8ba-9815-3b1e-0000-000000000000</parentGroupId>
            <backPressureDataSizeThreshold>1 GB</backPressureDataSizeThreshold>
            <backPressureObjectThreshold>10000</backPressureObjectThreshold>
            <destination>
                <groupId>7f7bb8ba-9815-3b1e-0000-000000000000</groupId>
                <id>2cde96a2-1973-3b9b-0000-000000000000</id>
                <type>PROCESSOR</type>
            </destination>
            <flowFileExpiration>0 sec</flowFileExpiration>
            <labelIndex>1</labelIndex>
            <loadBalanceCompression>DO_NOT_COMPRESS</loadBalanceCompression>
            <loadBalancePartitionAttribute></loadBalancePartitionAttribute>
            <loadBalanceStatus>LOAD_BALANCE_NOT_CONFIGURED</loadBalanceStatus>
            <loadBalanceStrategy>DO_NOT_LOAD_BALANCE</loadBalanceStrategy>
            <name></name>
            <selectedRelationships>matched</selectedRelationships>
            <source>
                <groupId>7f7bb8ba-9815-3b1e-0000-000000000000</groupId>
                <id>47bb4414-f7ab-3d7e-0000-000000000000</id>
                <type>PROCESSOR</type>
            </source>
            <zIndex>0</zIndex>
        </connections>
        <connections>
            <id>81c7c622-b298-3f8a-0000-000000000000</id>
            <parentGroupId>7f7bb8ba-9815-3b1e-0000-000000000000</parentGroupId>
            <backPressureDataSizeThreshold>1 GB</backPressureDataSizeThreshold>
            <backPressureObjectThreshold>10000</backPressureObjectThreshold>
            <destination>
                <groupId>7f7bb8ba-9815-3b1e-0000-000000000000</groupId>
                <id>47bb4414-f7ab-3d7e-0000-000000000000</id>
                <type>PROCESSOR</type>
            </destination>
            <flowFileExpiration>0 sec</flowFileExpiration>
            <labelIndex>1</labelIndex>
            <loadBalanceCompression>DO_NOT_COMPRESS</loadBalanceCompression>
            <loadBalancePartitionAttribute></loadBalancePartitionAttribute>
            <loadBalanceStatus>LOAD_BALANCE_NOT_CONFIGURED</loadBalanceStatus>
            <loadBalanceStrategy>DO_NOT_LOAD_BALANCE</loadBalanceStrategy>
            <name></name>
            <selectedRelationships>Response</selectedRelationships>
            <source>
                <groupId>7f7bb8ba-9815-3b1e-0000-000000000000</groupId>
                <id>f9d6aed6-5c25-38b7-0000-000000000000</id>
                <type>PROCESSOR</type>
            </source>
            <zIndex>0</zIndex>
        </connections>
        <connections>
            <id>c8ccb675-d50c-3f38-0000-000000000000</id>
            <parentGroupId>7f7bb8ba-9815-3b1e-0000-000000000000</parentGroupId>
            <backPressureDataSizeThreshold>1 GB</backPressureDataSizeThreshold>
            <backPressureObjectThreshold>10000</backPressureObjectThreshold>
            <destination>
                <groupId>7f7bb8ba-9815-3b1e-0000-000000000000</groupId>
                <id>b284cb4e-1397-3542-0000-000000000000</id>
                <type>PROCESSOR</type>
            </destination>
            <flowFileExpiration>0 sec</flowFileExpiration>
            <labelIndex>1</labelIndex>
            <loadBalanceCompression>DO_NOT_COMPRESS</loadBalanceCompression>
            <loadBalancePartitionAttribute></loadBalancePartitionAttribute>
            <loadBalanceStatus>LOAD_BALANCE_NOT_CONFIGURED</loadBalanceStatus>
            <loadBalanceStrategy>DO_NOT_LOAD_BALANCE</loadBalanceStrategy>
            <name></name>
            <selectedRelationships>Contains Password or Username</selectedRelationships>
            <source>
                <groupId>7f7bb8ba-9815-3b1e-0000-000000000000</groupId>
                <id>13123a9a-6a94-390a-0000-000000000000</id>
                <type>PROCESSOR</type>
            </source>
            <zIndex>0</zIndex>
        </connections>
        <connections>
            <id>f91946ac-538f-389b-0000-000000000000</id>
            <parentGroupId>7f7bb8ba-9815-3b1e-0000-000000000000</parentGroupId>
            <backPressureDataSizeThreshold>1 GB</backPressureDataSizeThreshold>
            <backPressureObjectThreshold>10000</backPressureObjectThreshold>
            <destination>
                <groupId>7f7bb8ba-9815-3b1e-0000-000000000000</groupId>
                <id>f9d6aed6-5c25-38b7-0000-000000000000</id>
                <type>PROCESSOR</type>
            </destination>
            <flowFileExpiration>0 sec</flowFileExpiration>
            <labelIndex>1</labelIndex>
            <loadBalanceCompression>DO_NOT_COMPRESS</loadBalanceCompression>
            <loadBalancePartitionAttribute></loadBalancePartitionAttribute>
            <loadBalanceStatus>LOAD_BALANCE_NOT_CONFIGURED</loadBalanceStatus>
            <loadBalanceStrategy>DO_NOT_LOAD_BALANCE</loadBalanceStrategy>
            <name></name>
            <selectedRelationships>success</selectedRelationships>
            <source>
                <groupId>7f7bb8ba-9815-3b1e-0000-000000000000</groupId>
                <id>7c8cf305-cf16-35de-0000-000000000000</id>
                <type>PROCESSOR</type>
            </source>
            <zIndex>0</zIndex>
        </connections>
        <processors>
            <id>0b5ee1c2-98f1-30b6-0000-000000000000</id>
            <parentGroupId>7f7bb8ba-9815-3b1e-0000-000000000000</parentGroupId>
            <position>
                <x>224.0</x>
                <y>0.0</y>
            </position>
            <bundle>
                <artifact>nifi-standard-nar</artifact>
                <group>org.apache.nifi</group>
                <version>1.14.0</version>
            </bundle>
            <config>
                <bulletinLevel>WARN</bulletinLevel>
                <comments></comments>
                <concurrentlySchedulableTaskCount>1</concurrentlySchedulableTaskCount>
                <descriptors>
                    <entry>
                        <key>HTTP Method</key>
                        <value>
                            <name>HTTP Method</name>
                        </value>
                    </entry>
                    <entry>
                        <key>Remote URL</key>
                        <value>
                            <name>Remote URL</name>
                        </value>
                    </entry>
                    <entry>
                        <key>SSL Context Service</key>
                        <value>
                            <identifiesControllerService>org.apache.nifi.ssl.SSLContextService</identifiesControllerService>
                            <name>SSL Context Service</name>
                        </value>
                    </entry>
                    <entry>
                        <key>Connection Timeout</key>
                        <value>
                            <name>Connection Timeout</name>
                        </value>
                    </entry>
                    <entry>
                        <key>Read Timeout</key>
                        <value>
                            <name>Read Timeout</name>
                        </value>
                    </entry>
                    <entry>
                        <key>idle-timeout</key>
                        <value>
                            <name>idle-timeout</name>
                        </value>
                    </entry>
                    <entry>
                        <key>max-idle-connections</key>
                        <value>
                            <name>max-idle-connections</name>
                        </value>
                    </entry>
                    <entry>
                        <key>Include Date Header</key>
                        <value>
                            <name>Include Date Header</name>
                        </value>
                    </entry>
                    <entry>
                        <key>Follow Redirects</key>
                        <value>
                            <name>Follow Redirects</name>
                        </value>
                    </entry>
                    <entry>
                        <key>disable-http2</key>
                        <value>
                            <name>disable-http2</name>
                        </value>
                    </entry>
                    <entry>
                        <key>Attributes to Send</key>
                        <value>
                            <name>Attributes to Send</name>
                        </value>
                    </entry>
                    <entry>
                        <key>Useragent</key>
                        <value>
                            <name>Useragent</name>
                        </value>
                    </entry>
                    <entry>
                        <key>Basic Authentication Username</key>
                        <value>
                            <name>Basic Authentication Username</name>
                        </value>
                    </entry>
                    <entry>
                        <key>Basic Authentication Password</key>
                        <value>
                            <name>Basic Authentication Password</name>
                        </value>
                    </entry>
                    <entry>
                        <key>proxy-configuration-service</key>
                        <value>
                            <identifiesControllerService>org.apache.nifi.proxy.ProxyConfigurationService</identifiesControllerService>
                            <name>proxy-configuration-service</name>
                        </value>
                    </entry>
                    <entry>
                        <key>Proxy Host</key>
                        <value>
                            <name>Proxy Host</name>
                        </value>
                    </entry>
                    <entry>
                        <key>Proxy Port</key>
                        <value>
                            <name>Proxy Port</name>
                        </value>
                    </entry>
                    <entry>
                        <key>Proxy Type</key>
                        <value>
                            <name>Proxy Type</name>
                        </value>
                    </entry>
                    <entry>
                        <key>invokehttp-proxy-user</key>
                        <value>
                            <name>invokehttp-proxy-user</name>
                        </value>
                    </entry>
                    <entry>
                        <key>invokehttp-proxy-password</key>
                        <value>
                            <name>invokehttp-proxy-password</name>
                        </value>
                    </entry>
                    <entry>
                        <key>Put Response Body In Attribute</key>
                        <value>
                            <name>Put Response Body In Attribute</name>
                        </value>
                    </entry>
                    <entry>
                        <key>Max Length To Put In Attribute</key>
                        <value>
                            <name>Max Length To Put In Attribute</name>
                        </value>
                    </entry>
                    <entry>
                        <key>Digest Authentication</key>
                        <value>
                            <name>Digest Authentication</name>
                        </value>
                    </entry>
                    <entry>
                        <key>Always Output Response</key>
                        <value>
                            <name>Always Output Response</name>
                        </value>
                    </entry>
                    <entry>
                        <key>Add Response Headers to Request</key>
                        <value>
                            <name>Add Response Headers to Request</name>
                        </value>
                    </entry>
                    <entry>
                        <key>Content-Type</key>
                        <value>
                            <name>Content-Type</name>
                        </value>
                    </entry>
                    <entry>
                        <key>send-message-body</key>
                        <value>
                            <name>send-message-body</name>
                        </value>
                    </entry>
                    <entry>
                        <key>Use Chunked Encoding</key>
                        <value>
                            <name>Use Chunked Encoding</name>
                        </value>
                    </entry>
                    <entry>
                        <key>Penalize on "No Retry"</key>
                        <value>
                            <name>Penalize on "No Retry"</name>
                        </value>
                    </entry>
                    <entry>
                        <key>use-etag</key>
                        <value>
                            <name>use-etag</name>
                        </value>
                    </entry>
                    <entry>
                        <key>etag-max-cache-size</key>
                        <value>
                            <name>etag-max-cache-size</name>
                        </value>
                    </entry>
                    <entry>
                        <key>ignore-response-content</key>
                        <value>
                            <name>ignore-response-content</name>
                        </value>
                    </entry>
                    <entry>
                        <key>form-body-form-name</key>
                        <value>
                            <name>form-body-form-name</name>
                        </value>
                    </entry>
                    <entry>
                        <key>set-form-filename</key>
                        <value>
                            <name>set-form-filename</name>
                        </value>
                    </entry>
                </descriptors>
                <executionNode>ALL</executionNode>
                <lossTolerant>false</lossTolerant>
                <penaltyDuration>30 sec</penaltyDuration>
                <properties>
                    <entry>
                        <key>HTTP Method</key>
                        <value>GET</value>
                    </entry>
                    <entry>
                        <key>Remote URL</key>
                        <value>https://pastebin.com/archive</value>
                    </entry>
                    <entry>
                        <key>SSL Context Service</key>
                    </entry>
                    <entry>
                        <key>Connection Timeout</key>
                        <value>5 secs</value>
                    </entry>
                    <entry>
                        <key>Read Timeout</key>
                        <value>15 secs</value>
                    </entry>
                    <entry>
                        <key>idle-timeout</key>
                        <value>5 mins</value>
                    </entry>
                    <entry>
                        <key>max-idle-connections</key>
                        <value>5</value>
                    </entry>
                    <entry>
                        <key>Include Date Header</key>
                        <value>True</value>
                    </entry>
                    <entry>
                        <key>Follow Redirects</key>
                        <value>True</value>
                    </entry>
                    <entry>
                        <key>disable-http2</key>
                        <value>False</value>
                    </entry>
                    <entry>
                        <key>Attributes to Send</key>
                    </entry>
                    <entry>
                        <key>Useragent</key>
                    </entry>
                    <entry>
                        <key>Basic Authentication Username</key>
                    </entry>
                    <entry>
                        <key>Basic Authentication Password</key>
                    </entry>
                    <entry>
                        <key>proxy-configuration-service</key>
                    </entry>
                    <entry>
                        <key>Proxy Host</key>
                    </entry>
                    <entry>
                        <key>Proxy Port</key>
                    </entry>
                    <entry>
                        <key>Proxy Type</key>
                        <value>http</value>
                    </entry>
                    <entry>
                        <key>invokehttp-proxy-user</key>
                    </entry>
                    <entry>
                        <key>invokehttp-proxy-password</key>
                    </entry>
                    <entry>
                        <key>Put Response Body In Attribute</key>
                    </entry>
                    <entry>
                        <key>Max Length To Put In Attribute</key>
                        <value>256</value>
                    </entry>
                    <entry>
                        <key>Digest Authentication</key>
                        <value>false</value>
                    </entry>
                    <entry>
                        <key>Always Output Response</key>
                        <value>false</value>
                    </entry>
                    <entry>
                        <key>Add Response Headers to Request</key>
                        <value>false</value>
                    </entry>
                    <entry>
                        <key>Content-Type</key>
                        <value>${mime.type}</value>
                    </entry>
                    <entry>
                        <key>send-message-body</key>
                        <value>true</value>
                    </entry>
                    <entry>
                        <key>Use Chunked Encoding</key>
                        <value>false</value>
                    </entry>
                    <entry>
                        <key>Penalize on "No Retry"</key>
                        <value>false</value>
                    </entry>
                    <entry>
                        <key>use-etag</key>
                        <value>false</value>
                    </entry>
                    <entry>
                        <key>etag-max-cache-size</key>
                        <value>10MB</value>
                    </entry>
                    <entry>
                        <key>ignore-response-content</key>
                        <value>false</value>
                    </entry>
                    <entry>
                        <key>form-body-form-name</key>
                    </entry>
                    <entry>
                        <key>set-form-filename</key>
                        <value>true</value>
                    </entry>
                </properties>
                <runDurationMillis>0</runDurationMillis>
                <schedulingPeriod>30 sec</schedulingPeriod>
                <schedulingStrategy>TIMER_DRIVEN</schedulingStrategy>
                <yieldDuration>1 sec</yieldDuration>
            </config>
            <executionNodeRestricted>false</executionNodeRestricted>
            <name>Get pastebins list</name>
            <relationships>
                <autoTerminate>true</autoTerminate>
                <name>Failure</name>
            </relationships>
            <relationships>
                <autoTerminate>true</autoTerminate>
                <name>No Retry</name>
            </relationships>
            <relationships>
                <autoTerminate>true</autoTerminate>
                <name>Original</name>
            </relationships>
            <relationships>
                <autoTerminate>false</autoTerminate>
                <name>Response</name>
            </relationships>
            <relationships>
                <autoTerminate>true</autoTerminate>
                <name>Retry</name>
            </relationships>
            <state>STOPPED</state>
            <style/>
            <type>org.apache.nifi.processors.standard.InvokeHTTP</type>
        </processors>
        <processors>
            <id>13123a9a-6a94-390a-0000-000000000000</id>
            <parentGroupId>7f7bb8ba-9815-3b1e-0000-000000000000</parentGroupId>
            <position>
                <x>0.0</x>
                <y>776.0</y>
            </position>
            <bundle>
                <artifact>nifi-standard-nar</artifact>
                <group>org.apache.nifi</group>
                <version>1.14.0</version>
            </bundle>
            <config>
                <bulletinLevel>WARN</bulletinLevel>
                <comments></comments>
                <concurrentlySchedulableTaskCount>1</concurrentlySchedulableTaskCount>
                <descriptors>
                    <entry>
                        <key>Match Requirement</key>
                        <value>
                            <name>Match Requirement</name>
                        </value>
                    </entry>
                    <entry>
                        <key>Character Set</key>
                        <value>
                            <name>Character Set</name>
                        </value>
                    </entry>
                    <entry>
                        <key>Content Buffer Size</key>
                        <value>
                            <name>Content Buffer Size</name>
                        </value>
                    </entry>
                    <entry>
                        <key>Contains Password or Username</key>
                        <value>
                            <name>Contains Password or Username</name>
                        </value>
                    </entry>
                </descriptors>
                <executionNode>ALL</executionNode>
                <lossTolerant>false</lossTolerant>
                <penaltyDuration>30 sec</penaltyDuration>
                <properties>
                    <entry>
                        <key>Match Requirement</key>
                        <value>content must contain match</value>
                    </entry>
                    <entry>
                        <key>Character Set</key>
                        <value>UTF-8</value>
                    </entry>
                    <entry>
                        <key>Content Buffer Size</key>
                        <value>1 MB</value>
                    </entry>
                    <entry>
                        <key>Contains Password or Username</key>
                        <value>(^|\s)(password:|pass:|user:|username:)</value>
                    </entry>
                </properties>
                <runDurationMillis>0</runDurationMillis>
                <schedulingPeriod>0 sec</schedulingPeriod>
                <schedulingStrategy>TIMER_DRIVEN</schedulingStrategy>
                <yieldDuration>1 sec</yieldDuration>
            </config>
            <executionNodeRestricted>false</executionNodeRestricted>
            <name>Check if content has user or pass</name>
            <relationships>
                <autoTerminate>false</autoTerminate>
                <name>Contains Password or Username</name>
            </relationships>
            <relationships>
                <autoTerminate>true</autoTerminate>
                <name>unmatched</name>
            </relationships>
            <state>STOPPED</state>
            <style/>
            <type>org.apache.nifi.processors.standard.RouteOnContent</type>
        </processors>
        <processors>
            <id>2cde96a2-1973-3b9b-0000-000000000000</id>
            <parentGroupId>7f7bb8ba-9815-3b1e-0000-000000000000</parentGroupId>
            <position>
                <x>456.0</x>
                <y>1016.0</y>
            </position>
            <bundle>
                <artifact>nifi-slack-nar</artifact>
                <group>org.apache.nifi</group>
                <version>1.14.0</version>
            </bundle>
            <config>
                <bulletinLevel>WARN</bulletinLevel>
                <comments></comments>
                <concurrentlySchedulableTaskCount>1</concurrentlySchedulableTaskCount>
                <descriptors>
                    <entry>
                        <key>webhook-url</key>
                        <value>
                            <name>webhook-url</name>
                        </value>
                    </entry>
                    <entry>
                        <key>webhook-text</key>
                        <value>
                            <name>webhook-text</name>
                        </value>
                    </entry>
                    <entry>
                        <key>channel</key>
                        <value>
                            <name>channel</name>
                        </value>
                    </entry>
                    <entry>
                        <key>username</key>
                        <value>
                            <name>username</name>
                        </value>
                    </entry>
                    <entry>
                        <key>icon-url</key>
                        <value>
                            <name>icon-url</name>
                        </value>
                    </entry>
                    <entry>
                        <key>icon-emoji</key>
                        <value>
                            <name>icon-emoji</name>
                        </value>
                    </entry>
                </descriptors>
                <executionNode>ALL</executionNode>
                <lossTolerant>false</lossTolerant>
                <penaltyDuration>30 sec</penaltyDuration>
                <properties>
                    <entry>
                        <key>webhook-url</key>
                    </entry>
                    <entry>
                        <key>webhook-text</key>
                        <value>Pastebin content with ${secmail_address.0} email has been detected. Check it here: https://pastebin.com${HTMLElement}</value>
                    </entry>
                    <entry>
                        <key>channel</key>
                    </entry>
                    <entry>
                        <key>username</key>
                        <value>Pastebin Notifier</value>
                    </entry>
                    <entry>
                        <key>icon-url</key>
                    </entry>